/*--------------------------------*- C++ -*----------------------------------*\
| =========                 |                                                 |
| \\      /  F ield         | OpenFOAM: The Open Source CFD Toolbox           |
|  \\    /   O peration     | Version:  2.3.0                                 |
|   \\  /    A nd           | Web:      www.OpenFOAM.org                      |
|    \\/     M anipulation  |                                                 |
\*---------------------------------------------------------------------------*/
FoamFile
{
    version     2.0;
    format      ascii;
    class       dictionary;
    object      transportProperties;
}
// * * * * * * * * * * * * * * * * * * * * * * * * * * * * * * * * * * * * * //

transportModel  Newtonian;

nu              nu [0 2 -1 0 0 0 0] 1.5e-05;

Daa         Daa [0 2 -1 0 0 0 0] 3.2e-12;
kaae       kaae [0 0 -1 0 0 0 0] 1.2e-5;
kak       kak [ 0 0 -1 0 0 0 0]2.0e-6;
alpha       alpha [0 0 -1 0 0 0 0] -1.85e-6;
beta       beta [0 0 -1 0 0 0 0] 5.56e-6;
gamma       gamma [0 0 -1 0 0 0 0] -3.71e-6;


ktransavg		ktransavg	[0 0 -1 0 0 0 0]	0.001316551;

rho				rho	[1 -3 0 0 0 0 0]	1;


// ************************************************************************* //
